Version 4
SHEET 1 2672 1044
WIRE -3888 -3824 -3920 -3824
WIRE -3504 -3808 -3616 -3808
WIRE -3920 -3728 -3920 -3824
WIRE -3616 -3728 -3616 -3808
WIRE -3616 -3568 -3616 -3648
WIRE -3920 -3552 -3920 -3648
WIRE -3232 -3376 -3328 -3376
WIRE -2960 -3376 -3232 -3376
WIRE -2768 -3376 -2960 -3376
WIRE -3328 -3280 -3328 -3376
WIRE -3232 -3280 -3232 -3376
WIRE -2960 -3280 -2960 -3376
WIRE -2896 -3280 -2960 -3280
WIRE -2960 -3216 -2960 -3280
WIRE -2896 -3216 -2896 -3280
WIRE -3328 -3152 -3328 -3200
WIRE -3232 -3152 -3232 -3200
WIRE -3232 -3152 -3328 -3152
WIRE -2992 -3152 -3232 -3152
WIRE -2864 -3152 -2992 -3152
WIRE -3328 -3088 -3328 -3152
WIRE -3552 -3024 -3696 -3024
WIRE -3360 -3024 -3552 -3024
WIRE -3216 -3024 -3360 -3024
WIRE -2976 -3024 -2976 -3088
WIRE -2880 -3024 -2880 -3088
WIRE -2880 -3024 -2976 -3024
WIRE -2976 -2992 -2976 -3024
WIRE -2800 -2992 -2976 -2992
WIRE -2640 -2992 -2736 -2992
WIRE -2560 -2992 -2640 -2992
WIRE -3552 -2928 -3552 -3024
WIRE -3344 -2912 -3344 -2960
WIRE -3248 -2912 -3344 -2912
WIRE -3232 -2912 -3232 -2960
WIRE -3232 -2912 -3248 -2912
WIRE -2976 -2912 -2976 -2992
WIRE -2976 -2912 -3024 -2912
WIRE -2928 -2912 -2976 -2912
WIRE -3344 -2864 -3344 -2912
WIRE -3248 -2864 -3248 -2912
WIRE -3024 -2864 -3024 -2912
WIRE -2928 -2864 -2928 -2912
WIRE -2640 -2864 -2640 -2992
WIRE -3552 -2752 -3552 -2848
WIRE -3344 -2752 -3344 -2784
WIRE -3344 -2752 -3552 -2752
WIRE -3248 -2752 -3248 -2784
WIRE -3248 -2752 -3344 -2752
WIRE -3024 -2752 -3024 -2784
WIRE -3024 -2752 -3248 -2752
WIRE -2928 -2752 -2928 -2784
WIRE -2928 -2752 -3024 -2752
WIRE -2640 -2752 -2640 -2784
WIRE -2640 -2752 -2928 -2752
WIRE -3344 -2688 -3344 -2752
FLAG -3920 -3552 0
FLAG -3888 -3824 In
IOPIN -3888 -3824 Out
FLAG -3616 -3568 0
FLAG -3504 -3808 B+
IOPIN -3504 -3808 BiDir
FLAG -2768 -3376 B+
IOPIN -2768 -3376 BiDir
FLAG -3344 -2688 0
FLAG -2560 -2992 out2
IOPIN -2560 -2992 Out
FLAG -3696 -3024 In
IOPIN -3696 -3024 In
SYMBOL voltage -3920 -3744 R0
WINDOW 123 24 44 Left 2
WINDOW 39 0 0 Left 0
SYMATTR Value2 AC 1
SYMATTR InstName V4
SYMATTR Value ""
SYMBOL voltage -3616 -3744 R0
WINDOW 123 0 0 Left 0
WINDOW 39 0 0 Left 0
SYMATTR InstName V1
SYMATTR Value 200
SYMBOL Tubes\\nk_triode_l -3328 -3024 R0
SYMATTR InstName U5
SYMATTR SpiceModel 12AY7
SYMBOL res -3344 -3296 R0
SYMATTR InstName R1
SYMATTR Value 240k
SYMBOL res -3248 -3296 R0
SYMATTR InstName R2
SYMATTR Value 240k
SYMBOL Tubes\\nk_triode_l -2960 -3152 R0
SYMATTR InstName U6
SYMATTR SpiceModel 12AY7
SYMBOL res -3360 -2880 R0
SYMATTR InstName R3
SYMATTR Value 5K1
SYMBOL res -3264 -2880 R0
SYMATTR InstName R4
SYMATTR Value 8K2
SYMBOL res -3040 -2880 R0
SYMATTR InstName R6
SYMATTR Value 240k
SYMBOL res -2944 -2880 R0
SYMATTR InstName R7
SYMATTR Value 240k
SYMBOL res -2656 -2880 R0
SYMATTR InstName R8
SYMATTR Value 1000K
SYMBOL cap -2736 -3008 R90
WINDOW 0 0 32 VBottom 2
WINDOW 3 32 32 VTop 2
SYMATTR InstName C1
SYMATTR Value 0.15µf
SYMBOL res -3568 -2944 R0
SYMATTR InstName R16
SYMATTR Value 1000K
SYMBOL Tubes\\nk_triode_r -3248 -3024 R0
SYMATTR InstName U7
SYMBOL Tubes\\nk_triode_r -2896 -3152 R0
SYMATTR InstName U8
TEXT -3864 -2592 Left 2 !.ac dec 1000 1 250000
